@<TRIPOS>MOLECULE
CD Set 1, Guest ID 4: cyclopentanol
   16    16     1     0     0
SMALL
USER_CHARGES


@<TRIPOS>ATOM
      1 C1        -1.127   0.126  -1.796 C.3        1 MOL      0.011900
      2 H2        -1.444  -0.658  -2.487 H          1 MOL     -0.000700
      3 H3        -1.737   0.065  -0.891 H          1 MOL     -0.000700
      4 C2        -1.255   1.526  -2.409 C.3        1 MOL      0.011900
      5 H4        -0.936   1.498  -3.455 H          1 MOL     -0.000700
      6 H5        -2.278   1.902  -2.364 H          1 MOL     -0.000700
      7 C3        -0.282   2.391  -1.595 C.3        1 MOL     -0.131400
      8 H6        -0.804   2.812  -0.733 H          1 MOL      0.052500
      9 H7         0.112   3.217  -2.191 H          1 MOL      0.052500
     10 C4         0.826   1.439  -1.092 C.3        1 MOL      0.348600
     11 H8         0.944   1.558  -0.011 H          1 MOL     -0.015500
     12 C5         0.360   0.007  -1.427 C.3        1 MOL     -0.131400
     13 H9         0.912  -0.386  -2.285 H          1 MOL      0.052500
     14 H10        0.505  -0.668  -0.582 H          1 MOL      0.052500
     15 O1         2.064   1.729  -1.753 O.3        1 MOL     -0.729500
     16 H1         2.758   1.149  -1.327 H          1 MOL      0.428200
@<TRIPOS>BOND
    1    10    12 1
    2    10    15 1
    3     7    10 1
    4     4     7 1
    5     1     4 1
    6     1    12 1
    7    15    16 1
    8    12    13 1
    9    12    14 1
   10    10    11 1
   11     7     8 1
   12     7     9 1
   13     4     5 1
   14     4     6 1
   15     1     2 1
   16     1     3 1
@<TRIPOS>SUBSTRUCTURE
      1 MOL               1 ****               0 ****  **** 
