@<TRIPOS>MOLECULE
CD  Host: cyclodextrin
  159   166     0     0     0
SMALL
USER_CHARGES


@<TRIPOS>ATOM
      1 C1          24.395  28.641  30.013 C.2       1 MGO        0.6682
      2 C2          22.916  30.220  32.384 C.2       1 MGO        0.6337
      3 C3          25.880  28.124  27.969 C.3       1 MGO        0.0932
      4 C4          26.599  26.846  27.525 C.3       1 MGO        0.1184
      5 C5          25.743  30.235  23.868 C.3       1 MGO        0.1005
      6 C6          23.348  29.754  19.801 C.3       1 MGO        0.0843
      7 C7          24.409  21.998  28.151 C.3       1 MGO        0.1201
      8 C8          24.429  25.696  17.935 C.3       1 MGO        0.0964
      9 C9          25.796  20.966  20.036 C.3       1 MGO        0.1164
     10 C10         24.850  18.794  24.721 C.3       1 MGO        0.1212
     11 C11         26.518  29.392  27.433 C.3       1 MGO        0.1021
     12 C12         26.634  29.706  22.756 C.3       1 MGO        0.0773
     13 C13         22.471  28.660  20.439 C.3       1 MGO        0.0896
     14 C14         25.193  22.478  29.326 C.3       1 MGO        0.0941
     15 C15         23.749  24.396  17.330 C.3       1 MGO        0.0841
     16 C16         26.998  21.452  20.974 C.3       1 MGO        0.0874
     17 C17         25.450  17.839  25.863 C.3       1 MGO        0.0941
     18 C18         26.592  30.621  21.524 C.3       1 MGO        0.0933
     19 C19         21.773  27.818  19.321 C.3       1 MGO        0.1098
     20 C20         25.490  23.942  29.325 C.3       1 MGO        0.0929
     21 C21         23.474  23.415  18.466 C.3       1 MGO        0.1216
     22 C22         27.171  20.442  22.238 C.3       1 MGO        0.0800
     23 C23         25.954  18.677  27.059 C.3       1 MGO        0.0856
     24 C24         27.039  26.807  26.030 C.3       1 MGO        0.1377
     25 C25         24.322  30.562  23.348 C.3       1 MGO        0.1490
     26 C26         23.277  29.786  18.331 C.3       1 MGO        0.1528
     27 C27         24.185  23.037  27.015 C.3       1 MGO        0.1257
     28 C28         25.658  25.317  18.717 C.3       1 MGO        0.1418
     29 C29         25.243  19.529  20.530 C.3       1 MGO        0.1468
     30 C30         23.850  19.803  25.249 C.3       1 MGO        0.1419
     31 C31         26.887  29.289  25.861 C.3       1 MGO        0.3065
     32 C32         25.150  30.865  21.015 C.3       1 MGO        0.2992
     33 C33         26.061  24.461  27.984 C.3       1 MGO        0.3379
     34 C34         22.769  27.306  18.200 C.3       1 MGO        0.3025
     35 C35         24.835  23.037  19.119 C.3       1 MGO        0.3073
     36 C36         25.791  20.243  22.851 C.3       1 MGO        0.3016
     37 C37         24.772  19.601  27.544 C.3       1 MGO        0.3349
     38 C38         23.927  28.013  31.320 C.3       1 MGO       -0.1583
     39 C39         22.648  28.694  31.931 C.3       1 MGO       -0.1195
     40 C40         28.084  25.685  25.665 C.3       1 MGO        0.1079
     41 C41         23.419  31.290  24.430 C.3       1 MGO        0.1310
     42 C42         24.317  30.797  17.764 C.3       1 MGO        0.1375
     43 C43         23.009  24.087  27.286 C.3       1 MGO        0.1374
     44 C44         26.209  26.527  19.579 C.3       1 MGO        0.1292
     45 C45         24.069  19.120  19.770 C.3       1 MGO        0.1201
     46 C46         22.464  19.785  24.493 C.3       1 MGO        0.1113
     47 N1          25.471  28.054  29.423 N.am      1 MGO       -0.5797
     48 O1          23.987  29.662  29.519 O.2       1 MGO       -0.5808
     49 O2          24.021  30.539  32.788 O.2       1 MGO       -0.5574
     50 O3          25.620  25.846  27.786 O.3       1 MGO       -0.4244
     51 O4          25.678  29.357  25.052 O.3       1 MGO       -0.4098
     52 O5          24.691  29.638  20.367 O.3       1 MGO       -0.3907
     53 O6          23.602  26.319  18.850 O.3       1 MGO       -0.4046
     54 O7          25.230  20.967  27.583 O.3       1 MGO       -0.4029
     55 O8          24.741  22.046  20.111 O.3       1 MGO       -0.4049
     56 O9          25.965  19.363  24.066 O.3       1 MGO       -0.3701
     57 O10         27.652  28.045  25.620 O.3       1 MGO       -0.3923
     58 O11         24.320  31.355  22.068 O.3       1 MGO       -0.4343
     59 O12         25.485  23.741  26.820 O.3       1 MGO       -0.4213
     60 O13         23.601  28.479  17.756 O.3       1 MGO       -0.4276
     61 O14         25.417  24.216  19.724 O.3       1 MGO       -0.4299
     62 O15         24.874  19.624  21.890 O.3       1 MGO       -0.3952
     63 O16         23.593  19.586  26.672 O.3       1 MGO       -0.4346
     64 O17         21.857  31.041  32.476 O.3       1 MGO       -0.6043
     65 O18         25.626  30.533  27.529 O.3       1 MGO       -0.5669
     66 O19         28.064  29.506  23.152 O.3       1 MGO       -0.5619
     67 O20         21.447  29.076  21.295 O.3       1 MGO       -0.5860
     68 O21         24.455  22.073  30.544 O.3       1 MGO       -0.6059
     69 O22         22.545  24.683  16.607 O.3       1 MGO       -0.5865
     70 O23         28.203  21.530  20.205 O.3       1 MGO       -0.5955
     71 O24         26.542  17.027  25.228 O.3       1 MGO       -0.5619
     72 O25         27.441  30.042  20.442 O.3       1 MGO       -0.5760
     73 O26         21.275  26.620  19.854 O.3       1 MGO       -0.5829
     74 O27         26.422  24.323  30.369 O.3       1 MGO       -0.5867
     75 O28         22.667  22.331  17.841 O.3       1 MGO       -0.5684
     76 O29         28.078  21.142  23.159 O.3       1 MGO       -0.5938
     77 O30         26.550  17.903  28.116 O.3       1 MGO       -0.5940
     78 O31         29.289  25.820  26.368 O.3       1 MGO       -0.5842
     79 O32         22.071  31.510  23.915 O.3       1 MGO       -0.5972
     80 O33         24.201  30.585  16.354 O.3       1 MGO       -0.6082
     81 O34         23.253  25.278  26.535 O.3       1 MGO       -0.6048
     82 O35         27.306  26.044  20.378 O.3       1 MGO       -0.6133
     83 O36         23.383  17.923  20.343 O.3       1 MGO       -0.5971
     84 O37         21.543  20.653  25.063 O.3       1 MGO       -0.6064
     85 H1          24.938  28.056  27.411 H         1 MGO        0.1234
     86 H2          27.523  26.649  28.083 H         1 MGO        0.0913
     87 H3          26.115  31.199  24.235 H         1 MGO        0.0408
     88 H4          22.894  30.656  20.229 H         1 MGO        0.0818
     89 H5          23.384  21.639  28.302 H         1 MGO        0.1021
     90 H6          24.843  26.337  17.147 H         1 MGO        0.0697
     91 H7          26.123  20.764  19.009 H         1 MGO        0.0701
     92 H8          24.239  18.228  24.007 H         1 MGO        0.0554
     93 H9          27.407  29.526  28.061 H         1 MGO        0.0441
     94 H10         26.103  28.770  22.543 H         1 MGO        0.1189
     95 H11         23.109  27.960  20.992 H         1 MGO        0.1167
     96 H12         26.161  21.964  29.382 H         1 MGO        0.0646
     97 H13         24.447  23.898  16.647 H         1 MGO        0.0393
     98 H14         26.718  22.466  21.285 H         1 MGO        0.0708
     99 H15         24.777  17.091  26.299 H         1 MGO        0.0500
    100 H16         26.902  31.629  21.826 H         1 MGO        0.0888
    101 H17         20.992  28.468  18.908 H         1 MGO        0.0656
    102 H18         24.594  24.546  29.515 H         1 MGO        0.0734
    103 H19         22.872  23.887  19.252 H         1 MGO        0.1262
    104 H20         27.539  19.460  21.915 H         1 MGO        0.1038
    105 H21         26.722  19.315  26.604 H         1 MGO        0.0741
    106 H22         26.160  26.716  25.380 H         1 MGO        0.1151
    107 H23         23.772  29.618  23.260 H         1 MGO        0.0765
    108 H24         22.277  30.168  18.091 H         1 MGO        0.0644
    109 H25         24.044  22.430  26.112 H         1 MGO        0.0618
    110 H26         26.482  25.090  18.029 H         1 MGO        0.0606
    111 H27         26.096  18.853  20.393 H         1 MGO        0.1088
    112 H28         24.340  20.779  25.147 H         1 MGO        0.1205
    113 H29         27.528  30.141  25.608 H         1 MGO        0.0641
    114 H30         25.279  31.661  20.273 H         1 MGO        0.0664
    115 H31         27.155  24.423  27.919 H         1 MGO        0.0937
    116 H32         22.229  26.902  17.336 H         1 MGO        0.0685
    117 H33         25.510  22.665  18.340 H         1 MGO        0.0418
    118 H34         25.482  21.257  23.129 H         1 MGO        0.0612
    119 H35         24.327  19.321  28.506 H         1 MGO        0.0689
    120 H36         23.858  26.918  31.320 H         1 MGO        0.0794
    121 H37         24.828  28.124  31.936 H         1 MGO        0.0794
    122 H38         22.333  28.146  32.828 H         1 MGO        0.1000
    123 H39         21.821  28.585  31.219 H         1 MGO        0.1000
    124 H40         28.278  25.740  24.586 H         1 MGO        0.0256
    125 H41         27.608  24.704  25.778 H         1 MGO        0.0256
    126 H42         23.865  32.177  24.897 H         1 MGO        0.0477
    127 H43         23.304  30.628  25.297 H         1 MGO        0.0477
    128 H44         25.367  30.566  17.979 H         1 MGO        0.0535
    129 H45         24.018  31.794  18.109 H         1 MGO        0.0535
    130 H46         22.904  24.367  28.342 H         1 MGO        0.0589
    131 H47         22.010  23.739  26.996 H         1 MGO        0.0589
    132 H48         25.347  26.845  20.179 H         1 MGO        0.0724
    133 H49         26.436  27.316  18.852 H         1 MGO        0.0724
    134 H50         24.243  18.949  18.701 H         1 MGO        0.0390
    135 H51         23.389  19.981  19.755 H         1 MGO        0.0390
    136 H52         22.185  18.725  24.468 H         1 MGO        0.0454
    137 H53         22.703  20.126  23.478 H         1 MGO        0.0454
    138 H54         25.829  27.237  29.903 H         1 MGO        0.3034
    139 H55         22.301  31.903  32.555 H         1 MGO        0.4462
    140 H56         25.016  30.364  28.268 H         1 MGO        0.3944
    141 H57         28.056  28.681  23.669 H         1 MGO        0.3917
    142 H58         21.074  28.219  21.565 H         1 MGO        0.4022
    143 H59         24.969  21.362  30.966 H         1 MGO        0.4066
    144 H60         22.798  25.016  15.728 H         1 MGO        0.4065
    145 H61         28.455  20.614  19.996 H         1 MGO        0.4165
    146 H62         27.092  17.652  24.724 H         1 MGO        0.3995
    147 H63         28.217  29.671  20.898 H         1 MGO        0.4089
    148 H64         21.986  25.963  19.756 H         1 MGO        0.4318
    149 H65         26.549  23.436  30.746 H         1 MGO        0.4072
    150 H66         22.471  22.720  16.971 H         1 MGO        0.3932
    151 H67         28.996  20.941  22.907 H         1 MGO        0.4253
    152 H68         27.491  18.150  28.135 H         1 MGO        0.4071
    153 H69         29.455  26.778  26.414 H         1 MGO        0.4026
    154 H70         22.030  31.081  23.042 H         1 MGO        0.4043
    155 H71         23.997  29.657  16.143 H         1 MGO        0.4050
    156 H72         24.221  25.317  26.630 H         1 MGO        0.4205
    157 H73         26.802  25.468  20.979 H         1 MGO        0.4104
    158 H74         23.438  18.178  21.281 H         1 MGO        0.4015
    159 H75         21.112  20.294  25.858 H         1 MGO        0.4244
@<TRIPOS>BOND
     1    1   38 1
     2    1   47 am
     3    1   48 2
     4    2   39 1
     5    2   49 2
     6    2   64 1
     7    3    4 1
     8    3   11 1
     9    3   47 1
    10    4   24 1
    11    4   50 1
    12    5   12 1
    13    5   25 1
    14    5   51 1
    15    6   13 1
    16    6   26 1
    17    6   52 1
    18    7   14 1
    19    7   27 1
    20    7   54 1
    21    8   15 1
    22    8   28 1
    23    8   53 1
    24    9   16 1
    25    9   29 1
    26    9   55 1
    27   10   17 1
    28   10   30 1
    29   10   56 1
    30   11   31 1
    31   11   65 1
    32   12   18 1
    33   12   66 1
    34   13   19 1
    35   13   67 1
    36   14   20 1
    37   14   68 1
    38   15   21 1
    39   15   69 1
    40   16   22 1
    41   16   70 1
    42   17   23 1
    43   17   71 1
    44   18   32 1
    45   18   72 1
    46   19   34 1
    47   19   73 1
    48   20   33 1
    49   20   74 1
    50   21   35 1
    51   21   75 1
    52   22   36 1
    53   22   76 1
    54   23   37 1
    55   23   77 1
    56   24   40 1
    57   24   57 1
    58   25   41 1
    59   25   58 1
    60   26   42 1
    61   26   60 1
    62   27   43 1
    63   27   59 1
    64   28   44 1
    65   28   61 1
    66   29   45 1
    67   29   62 1
    68   30   46 1
    69   30   63 1
    70   31   51 1
    71   31   57 1
    72   32   52 1
    73   32   58 1
    74   33   50 1
    75   33   59 1
    76   34   53 1
    77   34   60 1
    78   35   55 1
    79   35   61 1
    80   36   56 1
    81   36   62 1
    82   37   54 1
    83   37   63 1
    84   38   39 1
    85   40   78 1
    86   41   79 1
    87   42   80 1
    88   43   81 1
    89   44   82 1
    90   45   83 1
    91   46   84 1
    92    3   85 1
    93    4   86 1
    94    5   87 1
    95    6   88 1
    96    7   89 1
    97    8   90 1
    98    9   91 1
    99   10   92 1
   100   11   93 1
   101   12   94 1
   102   13   95 1
   103   14   96 1
   104   15   97 1
   105   16   98 1
   106   17   99 1
   107   18  100 1
   108   19  101 1
   109   20  102 1
   110   21  103 1
   111   22  104 1
   112   23  105 1
   113   24  106 1
   114   25  107 1
   115   26  108 1
   116   27  109 1
   117   28  110 1
   118   29  111 1
   119   30  112 1
   120   31  113 1
   121   32  114 1
   122   33  115 1
   123   34  116 1
   124   35  117 1
   125   36  118 1
   126   37  119 1
   127   38  120 1
   128   38  121 1
   129   39  122 1
   130   39  123 1
   131   40  124 1
   132   40  125 1
   133   41  126 1
   134   41  127 1
   135   42  128 1
   136   42  129 1
   137   43  130 1
   138   43  131 1
   139   44  132 1
   140   44  133 1
   141   45  134 1
   142   45  135 1
   143   46  136 1
   144   46  137 1
   145   47  138 1
   146   64  139 1
   147   65  140 1
   148   66  141 1
   149   67  142 1
   150   68  143 1
   151   69  144 1
   152   70  145 1
   153   71  146 1
   154   72  147 1
   155   73  148 1
   156   74  149 1
   157   75  150 1
   158   76  151 1
   159   77  152 1
   160   78  153 1
   161   79  154 1
   162   80  155 1
   163   81  156 1
   164   82  157 1
   165   83  158 1
   166   84  159 1
