@<TRIPOS>MOLECULE
CD  Host: cyclodextrin
  159   166     0     0     0
SMALL
USER_CHARGES


@<TRIPOS>ATOM
      1 C1         -1.022   3.258   5.812 C.2       1 MGO        0.6682
      2 C2         -2.882   4.672   7.828 C.2       1 MGO        0.6337
      3 C3          0.420   4.104   3.796 C.3       1 MGO        0.0932
      4 C4          1.396   3.005   3.301 C.3       1 MGO        0.1184
      5 C5          0.468   5.878  -0.096 C.3       1 MGO        0.1005
      6 C6         -1.063   4.902  -4.985 C.3       1 MGO        0.0843
      7 C7          0.192  -2.221   3.525 C.3       1 MGO        0.1201
      8 C8          0.302   0.921  -7.054 C.3       1 MGO        0.0964
      9 C9          0.655  -3.125  -3.984 C.3       1 MGO        0.1164
     10 C10        -0.394  -5.276   0.339 C.3       1 MGO        0.1212
     11 C11         0.919   5.598   3.727 C.3       1 MGO        0.1021
     12 C12         1.711   5.235  -0.842 C.3       1 MGO        0.0773
     13 C13        -1.961   3.727  -4.464 C.3       1 MGO        0.0896
     14 C14         1.198  -1.575   4.484 C.3       1 MGO        0.0941
     15 C15        -0.100  -0.262  -7.999 C.3       1 MGO        0.0841
     16 C16         1.432  -2.214  -2.961 C.3       1 MGO        0.0874
     17 C17         0.135  -6.416   1.224 C.3       1 MGO        0.0941
     18 C18         1.664   5.305  -2.365 C.3       1 MGO        0.0933
     19 C19        -2.605   2.942  -5.586 C.3       1 MGO        0.1098
     20 C20         1.163  -0.045   4.519 C.3       1 MGO        0.0929
     21 C21        -0.536  -1.431  -7.097 C.3       1 MGO        0.1216
     22 C22         1.914  -2.977  -1.669 C.3       1 MGO        0.0800
     23 C23         0.949  -5.773   2.409 C.3       1 MGO        0.0856
     24 C24         2.128   3.376   2.009 C.3       1 MGO        0.1377
     25 C25        -0.880   5.677  -0.824 C.3       1 MGO        0.1490
     26 C26        -0.838   4.833  -6.512 C.3       1 MGO        0.1528
     27 C27        -0.109  -1.224   2.334 C.3       1 MGO        0.1257
     28 C28         1.412   0.604  -6.069 C.3       1 MGO        0.1418
     29 C29        -0.125  -4.143  -3.156 C.3       1 MGO        0.1468
     30 C30        -1.428  -4.344   1.166 C.3       1 MGO        0.1419
     31 C31         1.393   5.786   2.265 C.3       1 MGO        0.3065
     32 C32         0.262   4.932  -2.811 C.3       1 MGO        0.2992
     33 C33         1.446   0.631   3.143 C.3       1 MGO        0.3379
     34 C34        -1.592   2.504  -6.717 C.3       1 MGO        0.3025
     35 C35         0.532  -1.734  -5.984 C.3       1 MGO        0.3073
     36 C36         0.567  -3.341  -0.935 C.3       1 MGO        0.3016
     37 C37         0.176  -4.595   3.120 C.3       1 MGO        0.3349
     38 C38        -1.028   3.025   7.318 C.3       1 MGO       -0.1583
     39 C39        -2.420   3.267   7.965 C.3       1 MGO       -0.1195
     40 C40         3.474   2.657   1.677 C.3       1 MGO        0.1079
     41 C41        -2.043   6.598  -0.228 C.3       1 MGO        0.1310
     42 C42         0.255   5.780  -7.168 C.3       1 MGO        0.1375
     43 C43        -1.313  -0.305   2.598 C.3       1 MGO        0.1374
     44 C44         1.562   1.886  -5.141 C.3       1 MGO        0.1292
     45 C45        -1.419  -4.701  -3.791 C.3       1 MGO        0.1201
     46 C46        -2.878  -4.823   1.068 C.3       1 MGO        0.1113
     47 N1          0.154   3.719   5.280 N.am      1 MGO       -0.5797
     48 O1         -1.959   3.068   5.134 O.2       1 MGO       -0.5808
     49 O2         -2.379   5.437   7.024 O.2       1 MGO       -0.5574
     50 O3          0.654   1.831   3.128 O.3       1 MGO       -0.4244
     51 O4          0.342   5.488   1.305 O.3       1 MGO       -0.4098
     52 O5          0.262   4.976  -4.271 O.3       1 MGO       -0.3907
     53 O6         -0.883   1.319  -6.262 O.3       1 MGO       -0.4046
     54 O7          0.807  -3.320   2.996 O.3       1 MGO       -0.4029
     55 O8         -0.177  -2.534  -4.959 O.3       1 MGO       -0.4049
     56 O9          0.768  -4.535  -0.065 O.3       1 MGO       -0.3701
     57 O10         2.448   4.784   2.075 O.3       1 MGO       -0.3923
     58 O11        -0.727   5.868  -2.283 O.3       1 MGO       -0.4343
     59 O12         1.036  -0.297   2.116 O.3       1 MGO       -0.4213
     60 O13        -0.575   3.476  -6.884 O.3       1 MGO       -0.4276
     61 O14         0.923  -0.473  -5.290 O.3       1 MGO       -0.4299
     62 O15        -0.529  -3.529  -1.850 O.3       1 MGO       -0.3952
     63 O16        -1.126  -4.491   2.598 O.3       1 MGO       -0.4346
     64 O17        -3.532   5.193   8.899 O.3       1 MGO       -0.6043
     65 O18        -0.043   6.622   4.120 O.3       1 MGO       -0.5669
     66 O19         2.969   5.777  -0.372 O.3       1 MGO       -0.5619
     67 O20        -2.899   4.045  -3.460 O.3       1 MGO       -0.5860
     68 O21         0.981  -2.002   5.831 O.3       1 MGO       -0.6059
     69 O22        -1.137   0.110  -8.948 O.3       1 MGO       -0.5865
     70 O23         2.648  -1.681  -3.592 O.3       1 MGO       -0.5955
     71 O24         0.900  -7.351   0.416 O.3       1 MGO       -0.5619
     72 O25         2.708   4.499  -2.884 O.3       1 MGO       -0.5760
     73 O26        -3.251   1.774  -5.003 O.3       1 MGO       -0.5829
     74 O27         2.187   0.256   5.418 O.3       1 MGO       -0.5867
     75 O28        -0.725  -2.643  -7.901 O.3       1 MGO       -0.5684
     76 O29         2.826  -2.111  -0.881 O.3       1 MGO       -0.5938
     77 O30         1.134  -6.725   3.379 O.3       1 MGO       -0.5940
     78 O31         4.253   2.486   2.784 O.3       1 MGO       -0.5842
     79 O32        -3.193   6.458  -1.119 O.3       1 MGO       -0.5972
     80 O33         0.145   5.781  -8.571 O.3       1 MGO       -0.6082
     81 O34        -1.496   0.426   1.436 O.3       1 MGO       -0.6048
     82 O35         2.665   1.789  -4.253 O.3       1 MGO       -0.6133
     83 O36        -1.838  -5.927  -3.157 O.3       1 MGO       -0.5971
     84 O37        -3.804  -3.883   1.566 O.3       1 MGO       -0.6064
     85 H1         -0.467   3.955   3.168 H         1 MGO        0.1234
     86 H2          2.159   2.896   4.082 H         1 MGO        0.0913
     87 H3          0.614   6.962  -0.174 H         1 MGO        0.0408
     88 H4         -1.540   5.851  -4.711 H         1 MGO        0.0818
     89 H5         -0.731  -2.408   4.086 H         1 MGO        0.1021
     90 H6          0.696   1.637  -7.787 H         1 MGO        0.0697
     91 H7          1.419  -3.679  -4.543 H         1 MGO        0.0701
     92 H8         -0.821  -5.693  -0.582 H         1 MGO        0.0554
     93 H9          1.710   5.776   4.465 H         1 MGO        0.0441
     94 H10         1.745   4.167  -0.597 H         1 MGO        0.1189
     95 H11        -1.219   3.055  -4.016 H         1 MGO        0.1167
     96 H12         2.183  -1.893   4.120 H         1 MGO        0.0646
     97 H13         0.695  -0.628  -8.658 H         1 MGO        0.0393
     98 H14         0.858  -1.368  -2.565 H         1 MGO        0.0708
     99 H15        -0.705  -6.957   1.677 H         1 MGO        0.0500
    100 H16         1.863   6.359  -2.596 H         1 MGO        0.0888
    101 H17        -3.407   3.495  -6.088 H         1 MGO        0.0656
    102 H18         0.189   0.350   4.832 H         1 MGO        0.0734
    103 H19        -1.467  -1.033  -6.675 H         1 MGO        0.1262
    104 H20         2.400  -3.937  -1.883 H         1 MGO        0.1038
    105 H21         1.927  -5.453   2.030 H         1 MGO        0.0741
    106 H22         1.452   3.132   1.181 H         1 MGO        0.1151
    107 H23        -1.198   4.635  -0.695 H         1 MGO        0.0765
    108 H24        -1.818   5.165  -6.878 H         1 MGO        0.0644
    109 H25        -0.452  -1.789   1.459 H         1 MGO        0.0618
    110 H26         2.329   0.388  -6.631 H         1 MGO        0.0606
    111 H27         0.508  -4.993  -2.873 H         1 MGO        0.1088
    112 H28        -1.338  -3.302   0.834 H         1 MGO        0.1205
    113 H29         1.846   6.758   2.041 H         1 MGO        0.0641
    114 H30         0.013   3.924  -2.460 H         1 MGO        0.0664
    115 H31         2.528   0.810   3.161 H         1 MGO        0.0937
    116 H32        -2.227   2.394  -7.603 H         1 MGO        0.0685
    117 H33         1.382  -2.259  -6.434 H         1 MGO        0.0418
    118 H34         0.352  -2.508  -0.254 H         1 MGO        0.0612
    119 H35         0.155  -4.688   4.211 H         1 MGO        0.0689
    120 H36        -0.912   1.945   7.467 H         1 MGO        0.0794
    121 H37        -0.240   3.574   7.846 H         1 MGO        0.0794
    122 H38        -2.346   2.976   9.020 H         1 MGO        0.1000
    123 H39        -3.161   2.697   7.392 H         1 MGO        0.1000
    124 H40         4.018   3.316   0.990 H         1 MGO        0.0256
    125 H41         3.274   1.670   1.240 H         1 MGO        0.0256
    126 H42        -1.702   7.639  -0.174 H         1 MGO        0.0477
    127 H43        -2.415   6.321   0.766 H         1 MGO        0.0477
    128 H44         1.255   5.497  -6.816 H         1 MGO        0.0535
    129 H45         0.122   6.805  -6.802 H         1 MGO        0.0535
    130 H46        -1.188   0.307   3.499 H         1 MGO        0.0589
    131 H47        -2.235  -0.866   2.797 H         1 MGO        0.0589
    132 H48         0.680   2.169  -4.555 H         1 MGO        0.0724
    133 H49         1.644   2.742  -5.822 H         1 MGO        0.0724
    134 H50        -1.217  -4.963  -4.836 H         1 MGO        0.0390
    135 H51        -2.163  -3.895  -3.752 H         1 MGO        0.0390
    136 H52        -2.920  -5.785   1.594 H         1 MGO        0.0454
    137 H53        -3.203  -5.084   0.054 H         1 MGO        0.0454
    138 H54         0.972   3.337   5.738 H         1 MGO        0.3034
    139 H55        -3.723   6.079   8.546 H         1 MGO        0.4462
    140 H56        -0.926   6.249   3.954 H         1 MGO        0.3944
    141 H57         2.857   5.498   0.553 H         1 MGO        0.3917
    142 H58        -3.129   3.154  -3.145 H         1 MGO        0.4022
    143 H59         1.099  -2.962   5.929 H         1 MGO        0.4066
    144 H60        -1.038  -0.485  -9.712 H         1 MGO        0.4065
    145 H61         2.397  -0.993  -4.233 H         1 MGO        0.4165
    146 H62         1.226  -6.706  -0.235 H         1 MGO        0.3995
    147 H63         3.170   5.028  -3.557 H         1 MGO        0.4089
    148 H64        -2.619   1.054  -4.830 H         1 MGO        0.4318
    149 H65         2.151  -0.471   6.064 H         1 MGO        0.4072
    150 H66        -0.255  -2.514  -8.744 H         1 MGO        0.3932
    151 H67         2.677  -1.191  -1.162 H         1 MGO        0.4253
    152 H68         1.668  -6.309   4.077 H         1 MGO        0.4071
    153 H69         4.927   1.791   2.683 H         1 MGO        0.4026
    154 H70        -3.072   5.622  -1.602 H         1 MGO        0.4043
    155 H71         0.453   4.926  -8.917 H         1 MGO        0.4050
    156 H72        -1.764  -0.166   0.711 H         1 MGO        0.4205
    157 H73         2.578   2.498  -3.593 H         1 MGO        0.4104
    158 H74        -2.747  -5.740  -2.864 H         1 MGO        0.4015
    159 H75        -3.690  -3.781   2.527 H         1 MGO        0.4244
@<TRIPOS>BOND
     1    1   38 1
     2    1   47 am
     3    1   48 2
     4    2   39 1
     5    2   49 2
     6    2   64 1
     7    3    4 1
     8    3   11 1
     9    3   47 1
    10    4   24 1
    11    4   50 1
    12    5   12 1
    13    5   25 1
    14    5   51 1
    15    6   13 1
    16    6   26 1
    17    6   52 1
    18    7   14 1
    19    7   27 1
    20    7   54 1
    21    8   15 1
    22    8   28 1
    23    8   53 1
    24    9   16 1
    25    9   29 1
    26    9   55 1
    27   10   17 1
    28   10   30 1
    29   10   56 1
    30   11   31 1
    31   11   65 1
    32   12   18 1
    33   12   66 1
    34   13   19 1
    35   13   67 1
    36   14   20 1
    37   14   68 1
    38   15   21 1
    39   15   69 1
    40   16   22 1
    41   16   70 1
    42   17   23 1
    43   17   71 1
    44   18   32 1
    45   18   72 1
    46   19   34 1
    47   19   73 1
    48   20   33 1
    49   20   74 1
    50   21   35 1
    51   21   75 1
    52   22   36 1
    53   22   76 1
    54   23   37 1
    55   23   77 1
    56   24   40 1
    57   24   57 1
    58   25   41 1
    59   25   58 1
    60   26   42 1
    61   26   60 1
    62   27   43 1
    63   27   59 1
    64   28   44 1
    65   28   61 1
    66   29   45 1
    67   29   62 1
    68   30   46 1
    69   30   63 1
    70   31   51 1
    71   31   57 1
    72   32   52 1
    73   32   58 1
    74   33   50 1
    75   33   59 1
    76   34   53 1
    77   34   60 1
    78   35   55 1
    79   35   61 1
    80   36   56 1
    81   36   62 1
    82   37   54 1
    83   37   63 1
    84   38   39 1
    85   40   78 1
    86   41   79 1
    87   42   80 1
    88   43   81 1
    89   44   82 1
    90   45   83 1
    91   46   84 1
    92    3   85 1
    93    4   86 1
    94    5   87 1
    95    6   88 1
    96    7   89 1
    97    8   90 1
    98    9   91 1
    99   10   92 1
   100   11   93 1
   101   12   94 1
   102   13   95 1
   103   14   96 1
   104   15   97 1
   105   16   98 1
   106   17   99 1
   107   18  100 1
   108   19  101 1
   109   20  102 1
   110   21  103 1
   111   22  104 1
   112   23  105 1
   113   24  106 1
   114   25  107 1
   115   26  108 1
   116   27  109 1
   117   28  110 1
   118   29  111 1
   119   30  112 1
   120   31  113 1
   121   32  114 1
   122   33  115 1
   123   34  116 1
   124   35  117 1
   125   36  118 1
   126   37  119 1
   127   38  120 1
   128   38  121 1
   129   39  122 1
   130   39  123 1
   131   40  124 1
   132   40  125 1
   133   41  126 1
   134   41  127 1
   135   42  128 1
   136   42  129 1
   137   43  130 1
   138   43  131 1
   139   44  132 1
   140   44  133 1
   141   45  134 1
   142   45  135 1
   143   46  136 1
   144   46  137 1
   145   47  138 1
   146   64  139 1
   147   65  140 1
   148   66  141 1
   149   67  142 1
   150   68  143 1
   151   69  144 1
   152   70  145 1
   153   71  146 1
   154   72  147 1
   155   73  148 1
   156   74  149 1
   157   75  150 1
   158   76  151 1
   159   77  152 1
   160   78  153 1
   161   79  154 1
   162   80  155 1
   163   81  156 1
   164   82  157 1
   165   83  158 1
   166   84  159 1
