@<TRIPOS>MOLECULE
toluene.pdb
   15    15     0     0     0
SMALL
NO_CHARGES

@<TRIPOS>ATOM
      1 C1        -32.3550    7.2630    2.2070 C.3       1 MOL         0.0000
      2 C2        -33.1810    6.6060    3.3010 C.ar      1 MOL         0.0000
      3 C3        -33.2380    7.1600    4.5650 C.ar      1 MOL         0.0000
      4 C4        -33.9920    6.5710    5.5700 C.ar      1 MOL         0.0000
      5 C5        -34.7110    5.4170    5.3320 C.ar      1 MOL         0.0000
      6 C6        -34.6380    4.8780    4.0600 C.ar      1 MOL         0.0000
      7 C7        -33.8940    5.4470    3.0480 C.ar      1 MOL         0.0000
      8 H1        -32.4371    6.6803    1.2895 H         1 MOL         0.0000
      9 H2        -32.7247    8.2730    2.0299 H         1 MOL         0.0000
     10 H3        -31.3110    7.3074    2.5171 H         1 MOL         0.0000
     11 H4        -32.6874    8.0652    4.7743 H         1 MOL         0.0000
     12 H5        -34.0166    7.0214    6.5513 H         1 MOL         0.0000
     13 H6        -35.3054    4.9545    6.1060 H         1 MOL         0.0000
     14 H7        -35.1876    3.9722    3.8505 H         1 MOL         0.0000
     15 H8        -33.8679    4.9931    2.0684 H         1 MOL         0.0000
@<TRIPOS>BOND
     1    1    2 1
     2    2    3 ar
     3    2    7 ar
     4    3    4 ar
     5    4    5 ar
     6    5    6 ar
     7    6    7 ar
     8    1    8 1
     9    1    9 1
    10    1   10 1
    11    3   11 1
    12    4   12 1
    13    5   13 1
    14    6   14 1
    15    7   15 1
