@<TRIPOS>MOLECULE
CD Set 1, Guest ID 4: cyclopentanol
   16    16     1     0     0
SMALL
USER_CHARGES


@<TRIPOS>ATOM
      1 C1         22.043  24.818  23.535 C.3        1 MOL      0.011900
      2 H2         21.227  24.780  22.802 H          1 MOL     -0.000700
      3 H3         21.613  24.647  24.530 H          1 MOL     -0.000700
      4 C2         22.543  26.298  23.530 C.3        1 MOL      0.011900
      5 H4         21.973  26.936  22.843 H          1 MOL     -0.000700
      6 H5         22.372  26.771  24.505 H          1 MOL     -0.000700
      7 C3         24.002  26.177  23.063 C.3        1 MOL     -0.131400
      8 H6         24.063  26.319  21.977 H          1 MOL      0.052500
      9 H7         24.617  26.911  23.597 H          1 MOL      0.052500
     10 C4         24.481  24.739  23.488 C.3        1 MOL      0.348600
     11 H8         24.936  24.669  24.484 H          1 MOL     -0.015500
     12 C5         23.237  23.898  23.312 C.3        1 MOL     -0.131400
     13 H9         23.113  23.465  22.311 H          1 MOL      0.052500
     14 H10        23.266  23.121  24.085 H          1 MOL      0.052500
     15 O1         25.580  24.468  22.554 O.3        1 MOL     -0.729500
     16 H1         25.268  23.995  21.763 H          1 MOL      0.428200
@<TRIPOS>BOND
    1    10    12 1
    2    10    15 1
    3     7    10 1
    4     4     7 1
    5     1     4 1
    6     1    12 1
    7    15    16 1
    8    12    13 1
    9    12    14 1
   10    10    11 1
   11     7     8 1
   12     7     9 1
   13     4     5 1
   14     4     6 1
   15     1     2 1
   16     1     3 1
@<TRIPOS>SUBSTRUCTURE
      1 MOL               1 ****               0 ****  **** 
